<?xml version="1.0" encoding="UTF-8"?>

<!-- generated on 2022-05-07 13:47:00 by Eclipse SUMO GUI Version 1.12.0
-->

<configuration xmlns:xsi="http://www.w3.org/2001/XMLSchema-instance" xsi:noNamespaceSchemaLocation="http://sumo.dlr.de/xsd/sumoConfiguration.xsd">

    <input>
        <net-file value="sim1_network.net.xml"/>
        <route-files value="routes_with_vehicles.rou.xml"/>
        <!-- <additional-files value="bus_stops.xml"/> -->
    </input>

</configuration>
