<?xml version="1.0" encoding="UTF-8"?>

<!-- generated on 2022-05-07 13:53:35 by Eclipse SUMO netedit Version 1.12.0
-->

<routes xmlns:xsi="http://www.w3.org/2001/XMLSchema-instance" xsi:noNamespaceSchemaLocation="http://sumo.dlr.de/xsd/routes_file.xsd">
    <flow id="f_0" begin="0.00" from="E0" to="E3" end="3600.00" vehsPerHour="1800.00"/>
    <flow id="f_1" begin="0.00" from="E0" to="E4" end="3600.00" vehsPerHour="1800.00"/>
    <flow id="f_10" begin="0.00" from="-E4" to="E6" via="E1" end="3600.00" vehsPerHour="1800.00"/>
    <flow id="f_11" begin="0.00" from="-E4" to="-E0" end="3600.00" vehsPerHour="1800.00"/>
    <flow id="f_12" begin="0.00" from="-E4" to="E3" end="3600.00" vehsPerHour="1800.00"/>
    <flow id="f_13" begin="0.00" from="-E4" to="E2" via="E1" end="3600.00" vehsPerHour="1800.00"/>
    <flow id="f_14" begin="0.00" from="-E4" to="E5" via="E1" end="3600.00" vehsPerHour="1800.00"/>
    <flow id="f_15" begin="0.00" from="-E2" to="E6" end="3600.00" vehsPerHour="1800.00"/>
    <flow id="f_16" begin="0.00" from="-E2" to="E3" via="-E1" end="3600.00" vehsPerHour="1800.00"/>
    <flow id="f_17" begin="0.00" from="-E2" to="E4" via="-E1" end="3600.00" vehsPerHour="1800.00"/>
    <flow id="f_18" begin="0.00" from="-E2" to="-E0" via="-E1" end="3600.00" vehsPerHour="1800.00"/>
    <flow id="f_19" begin="0.00" from="-E2" to="E4" via="-E1" end="3600.00" vehsPerHour="1800.00"/>
    <flow id="f_2" begin="0.00" from="E0" to="E3" end="3600.00" vehsPerHour="1800.00"/>
    <flow id="f_20" begin="0.00" from="-E5" to="E6" end="3600.00" vehsPerHour="1800.00"/>
    <flow id="f_21" begin="0.00" from="-E5" to="E4" via="-E1" end="3600.00" vehsPerHour="1800.00"/>
    <flow id="f_22" begin="0.00" from="-E5" to="E3" via="-E1" end="3600.00" vehsPerHour="1800.00"/>
    <flow id="f_23" begin="0.00" from="-E5" to="-E0" via="-E1" end="3600.00" vehsPerHour="1800.00"/>
    <flow id="f_24" begin="0.00" from="-E5" to="E4" via="-E1" end="3600.00" vehsPerHour="1800.00"/>
    <flow id="f_3" begin="0.00" from="E0" to="E1" end="3600.00" vehsPerHour="1800.00"/>
    <flow id="f_4" begin="0.00" from="E0" to="E6" via="E1" end="3600.00" vehsPerHour="1800.00"/>
    <flow id="f_5" begin="0.00" from="E0" to="E5" via="E1" end="3600.00" vehsPerHour="1800.00"/>
    <flow id="f_6" begin="0.00" from="E0" to="E2" via="E1" end="3600.00" vehsPerHour="1800.00"/>
    <flow id="f_7" begin="0.00" from="-E3" to="-E0" end="3600.00" vehsPerHour="1800.00"/>
    <flow id="f_8" begin="0.00" from="-E4" to="E3" end="3600.00" vehsPerHour="1800.00"/>
    <flow id="f_9" begin="0.00" from="-E4" to="E1" end="3600.00" vehsPerHour="1800.00"/>
</routes>
